examples/PvDemo/data/anu/anu_a.m
function mpc = anu_a
%ANU_A

%% MATPOWER Case Format : Version 2
mpc.version = '2';

%%-----  Power Flow Data  -----%%
%% system MVA base
mpc.baseMVA = 100;

%% bus data
%	bus_i	type	Pd	Qd	Gs	Bs	area	Vm	Va	baseKV	zone	Vmax	Vmin
mpc.bus = [
	1	1	0.0666668	0.277783334	0	0	8	0.926528372	29.8963044	0.415	2	1.1	0.9;
	2	1	0.0666668	0.277783334	0	0	8	0.926528372	29.8963044	0.415	2	1.1	0.9;
	3	1	0.1	0.416666667	0	0	8	0.911584204	29.8641328	0.415	2	1.1	0.9;
	4	1	0.1	0.416666667	0	0	8	0.911584204	29.8641328	0.415	2	1.1	0.9;
	5	1	0	0	0	0	8	0.925491152	29.8969934	0.415	2	1.1	0.9;
	6	1	0	0	0	0	8	0.925491152	29.8969934	0.415	2	1.1	0.9;
	7	1	0.1333332	0.55555	0	0	8	0.891912235	29.9505869	0.415	2	1.1	0.9;
	8	1	0	0	0	0	8	0.910863704	29.9960886	0.415	2	1.1	0.9;
	9	1	0	0	0	0	8	0.910863704	29.9960886	0.415	2	1.1	0.9;
	10	1	0.1	0.416666667	0	0	8	0.883493475	29.814783	0.415	2	1.1	0.9;
	11	1	0	0	0	0	8	0.897842605	29.8497325	0.415	2	1.1	0.9;
	12	1	0.1	0.416666667	0	0	8	0.866112498	29.948781	0.415	2	1.1	0.9;
	13	1	0.1	0.416666667	0	0	8	0.866112498	29.948781	0.415	2	1.1	0.9;
	14	1	0	0	0	0	8	0.88074959	29.9851238	0.415	2	1.1	0.9;
	15	1	0	0	0	0	8	0.88074959	29.9851238	0.415	2	1.1	0.9;
	16	1	0.1333332	0.55555	0	0	8	0.882529698	29.7887733	0.415	2	1.1	0.9;
	17	1	0	0	0	0	8	0.901682654	29.8352269	0.415	2	1.1	0.9;
	18	1	0.1333332	0.55555	0	0	8	0.882547536	29.7890288	0.415	2	1.1	0.9;
	19	1	0	0	0	0	8	0.901700106	29.8354807	0.415	2	1.1	0.9;
	20	1	0.0666668	0.277783334	0	0	8	0.922483217	29.641219	0.415	2	1.1	0.9;
	21	1	0.0666668	0.277783334	0	0	8	0.92248939	29.6430699	0.415	2	1.1	0.9;
	22	1	0.1	0.416666667	0	0	8	0.899541361	29.7755425	0.415	2	1.1	0.9;
	23	1	0	0	0	0	8	0.913634496	29.8092752	0.415	2	1.1	0.9;
	24	1	0.1	0.416666667	0	0	8	0.899545368	29.7755996	0.415	2	1.1	0.9;
	25	1	0	0	0	0	8	0.91363844	29.809332	0.415	2	1.1	0.9;
	26	1	0.1	0.416666667	0	0	8	0.904904709	29.7514943	0.415	2	1.1	0.9;
	27	1	0	0	0	0	8	0.918914312	29.7848344	0.415	2	1.1	0.9;
	28	1	0.0666668	0.277783334	0	0	8	0.89064264	29.7203973	0.415	2	1.1	0.9;
	29	1	0.1	0.416666667	0	0	8	0.909056354	29.7472016	0.415	2	1.1	0.9;
	30	1	0	0	0	0	8	0.923001974	29.7802425	0.415	2	1.1	0.9;
	31	1	0.1333332	0.55555	0	0	8	0.866079482	29.9128374	0.415	2	1.1	0.9;
	32	1	0	0	0	0	8	0.885596238	29.9610333	0.415	2	1.1	0.9;
	33	1	0.1333332	0.55555	0	0	8	0.866076657	29.9127966	0.415	2	1.1	0.9;
	34	1	0	0	0	0	8	0.885593478	29.9609928	0.415	2	1.1	0.9;
	35	1	0.1	0.416666667	0	0	8	0.850362015	30.0030452	0.415	2	1.1	0.9;
	36	1	0	0	0	0	8	0.865270224	30.0407234	0.415	2	1.1	0.9;
	37	1	0.1	0.416666667	0	0	8	0.917252419	29.7596674	0.415	2	1.1	0.9;
	38	1	0	0	0	0	8	0.931073426	29.7921292	0.415	2	1.1	0.9;
	39	1	0.1	0.416666667	0	0	8	0.917233716	29.7594055	0.415	2	1.1	0.9;
	40	1	0	0	0	0	8	0.931055005	29.7918686	0.415	2	1.1	0.9;
	41	1	0.0666668	0.277783334	0	0	8	0.941340439	29.6515008	0.415	2	1.1	0.9;
	42	1	0.0333333333	0.138883334	0	0	8	0.895632678	29.802087	0.415	2	1.1	0.9;
	43	1	0.0666668	0.277783334	0	0	8	0.923058173	29.7755204	0.415	2	1.1	0.9;
	44	1	0.0333333333	0.138883334	0	0	8	0.896633244	29.8057074	0.415	2	1.1	0.9;
	45	1	0.0666668	0.277783334	0	0	8	0.927558614	29.6433555	0.415	2	1.1	0.9;
	46	1	0.1333332	0.55555	0	0	8	0.843463923	29.9946873	0.415	2	1.1	0.9;
	47	1	0	0	0	0	8	0.863503994	30.0454416	0.415	2	1.1	0.9;
	48	1	0.1333332	0.55555	0	0	8	0.843478415	29.994868	0.415	2	1.1	0.9;
	49	1	0	0	0	0	8	0.863518142	30.0456205	0.415	2	1.1	0.9;
	50	1	0	0	0	0	8	0.897578234	30.0817749	0.415	2	1.1	0.9;
	51	1	0.1	0.416666667	0	0	8	0.909404273	29.7470378	0.415	2	1.1	0.9;
	52	1	0	0	0	0	8	0.923344558	29.7800538	0.415	2	1.1	0.9;
	53	1	0.1	0.416666667	0	0	8	0.899212518	29.7762052	0.415	2	1.1	0.9;
	54	1	0	0	0	0	8	0.913310806	29.8099622	0.415	2	1.1	0.9;
	55	1	0	0	0	0	8	0.92534084	29.7726619	0.415	2	1.1	0.9;
	56	1	0.0666668	0.277783334	0	0	8	0.937558006	29.6844748	0.415	2	1.1	0.9;
	57	1	0.0666668	0.277783334	0	0	8	0.937558006	29.6844748	0.415	2	1.1	0.9;
	58	1	0.0666668	0.277783334	0	0	8	0.886335339	29.6884048	0.415	2	1.1	0.9;
	59	1	0	0	0	0	8	0.8958709	29.7116788	0.415	2	1.1	0.9;
	60	1	0.1	0.416666667	0	0	8	0.880375222	29.8358938	0.415	2	1.1	0.9;
	61	1	0	0	0	0	8	0.894775177	29.8710874	0.415	2	1.1	0.9;
	62	1	0.1333332	0.55555	0	0	8	0.717275795	29.0001683	0.415	2	1.1	0.9;
	63	1	0	0	0	0	8	0.83511421	29.3087307	0.415	2	1.1	0.9;
	64	1	0.0666668	0.277783334	0	0	8	0.92297848	29.6397985	0.415	2	1.1	0.9;
	65	1	0.0666668	0.277783334	0	0	8	0.92297848	29.6397985	0.415	2	1.1	0.9;
	66	1	0.1	0.416666667	0	0	8	0.877880099	29.8478547	0.415	2	1.1	0.9;
	67	1	0	0	0	0	8	0.892320983	29.8832454	0.415	2	1.1	0.9;
	68	1	0.1333332	0.55555	0	0	8	0.880851003	29.7992202	0.415	2	1.1	0.9;
	69	1	0	0	0	0	8	0.900040462	29.8458473	0.415	2	1.1	0.9;
	70	1	0.1333332	0.55555	0	0	8	0.822591419	29.5298397	0.415	2	1.1	0.9;
	71	1	0	0	0	0	8	0.898381949	30.1078985	0.433	2	1.1	0.9;
	72	1	0	0	0	0	8	0.898319246	30.1077308	0.433	2	1.1	0.9;
	73	1	0.1333332	0.416666667	0	0	8	0.943738545	29.7474055	0.415	2	1.1	0.9;
	74	1	0	0	0	0	8	0.945102363	29.7567302	0.415	2	1.1	0.9;
	75	1	0.1	0.416666667	0	0	8	0.894726928	30.1036415	0.415	2	1.1	0.9;
	76	1	0	0	0	0	8	0.908895898	30.1377325	0.415	2	1.1	0.9;
	77	1	0.1333332	0.55555	0	0	8	0.901427235	30.071241	11	2	1.1	0.9;
	78	1	0	0	0	0	8	0.901453925	30.0713057	11	2	1.1	0.9;
	79	1	0.1333332	0.55555	0	0	8	0.866493661	30.0370414	0.433	2	1.1	0.9;
	80	1	0	0	0	0	8	0.868285562	30.0415547	0.433	2	1.1	0.9;
	81	1	0.0666668	0.222216666	0	0	8	0.880833908	29.8527575	0.433	2	1.1	0.9;
	82	1	0	0	0	0	8	0.881547065	29.8571306	0.433	2	1.1	0.9;
	83	1	0.1333332	0.55555	0	0	8	0.880635612	30.0195567	0.415	2	1.1	0.9;
	84	1	0	0	0	0	8	0.899829764	30.0662062	0.415	2	1.1	0.9;
	85	1	0.1333332	0.55555	0	0	8	0.880779133	30.0199451	0.415	2	1.1	0.9;
	86	1	0	0	0	0	8	0.899970158	30.0665796	0.415	2	1.1	0.9;
	87	1	0.1333332	0.55555	0	0	8	0.88260742	30.0246695	0.433	2	1.1	0.9;
	88	1	0	0	0	0	8	0.90019951	30.0674077	0.433	2	1.1	0.9;
	89	1	0.1	0.416666667	0	0	8	0.876731178	29.8614667	0.433	2	1.1	0.9;
	90	1	0	0	0	0	8	0.890013761	29.8941031	0.433	2	1.1	0.9;
	91	1	0.1333332	0.55555	0	0	8	0.849776679	29.9896044	0.433	2	1.1	0.9;
	92	1	0	0	0	0	8	0.868048452	30.035638	0.433	2	1.1	0.9;
	93	1	0	0	0	0	8	0.92306648	0.169458468	11	2	1.1	0.9;
	94	1	0	0	0	0	8	0.920653298	0.160558742	11	2	1.1	0.9;
	95	1	0	0	0	0	9	0.99960626	-0.000280819783	11	2	1.1	0.9;
	96	1	0	0	0	0	9	0.999608699	-0.000419975045	11	2	1.1	0.9;
	97	1	0	0	0	0	9	0.999683979	-0.00102913056	11	2	1.1	0.9;
	98	1	0	0	0	0	9	0.999682846	-0.0012180058	11	2	1.1	0.9;
	99	3	0	0	0	0	9	1	0	11	2	1.1	0.9;
	100	1	0	0	0	0	8	0.920387847	0.159429683	11	2	1.1	0.9;
	101	1	0	0	0	0	8	0.921959616	0.164785951	11	2	1.1	0.9;
	102	1	0	0	0	0	8	0.92153231	0.163002804	11	2	1.1	0.9;
	103	1	0	0	0	0	8	0.921353597	0.162257237	11	2	1.1	0.9;
	104	1	0	0	0	0	8	0.923832628	0.167075848	11	2	1.1	0.9;
	105	1	0	0	0	0	8	0.97114938	0.0485914073	11	2	1.1	0.9;
	106	1	0	0	0	0	8	0.971018634	0.0481652629	11	2	1.1	0.9;
	107	1	0	0	0	0	8	0.970953397	0.0484538265	11	2	1.1	0.9;
	108	1	0	0	0	0	9	0.971144021	0.048510396	11	2	1.1	0.9;
	109	1	0	0	0	0	8	0.952022504	0.0559157526	11	2	1.1	0.9;
	110	1	0	0	0	0	8	0.944476357	0.0800046199	11	2	1.1	0.9;
	111	1	0	0	0	0	8	0.926616623	0.15230176	11	2	1.1	0.9;
	112	1	0	0	0	0	8	0.929785194	0.358397354	11	2	1.1	0.9;
	113	1	0	0	0	0	8	0.920388097	0.159427541	11	2	1.1	0.9;
	114	1	0	0	0	0	8	0.89704609	0.34394244	11	2	1.1	0.9;
	115	1	0	0	0	0	8	0.946446967	0.0679052132	11	2	1.1	0.9;
	116	1	0	0	0	0	8	0.956231606	0.160165062	11	2	1.1	0.9;
	117	1	0	0	0	0	8	0.942595091	0.265067219	11	2	1.1	0.9;
	118	1	0	0	0	0	8	0.929561252	0.128991435	11	2	1.1	0.9;
	119	1	0	0	0	0	8	0.913105302	0.275071342	11	2	1.1	0.9;
	120	1	0	0	0	0	8	0.933751674	0.109607114	11	2	1.1	0.9;
	121	1	0	0	0	0	8	0.933768477	0.109850446	11	2	1.1	0.9;
	122	1	0	0	0	0	8	0.952019121	0.0559720258	11	2	1.1	0.9;
	123	1	0	0	0	0	8	0.952031904	0.0559994334	11	2	1.1	0.9;
	124	1	0	0	0	0	8	0.944786823	0.0791721166	11	2	1.1	0.9;
	125	1	0	0	0	0	8	0.944790629	0.079226613	11	2	1.1	0.9;
	126	1	0	0	0	0	8	0.921244601	0.162404987	11	2	1.1	0.9;
	127	1	0	0	0	0	8	0.953827976	0.0448051699	11	2	1.1	0.9;
	128	1	0	0	0	0	8	0.918274902	0.245275378	11	2	1.1	0.9;
	129	1	0	0	0	0	8	0.918272248	0.245236645	11	2	1.1	0.9;
	130	1	0	0	0	0	8	0.898225759	0.340884531	11	2	1.1	0.9;
	131	1	0	0	0	0	8	0.961623771	0.0522206149	11	2	1.1	0.9;
	132	1	0	0	0	0	8	0.961605973	0.0519700698	11	2	1.1	0.9;
	133	1	0	0	0	0	8	0.970290411	0.0485460653	11	2	1.1	0.9;
	134	1	0	0	0	0	8	0.937689797	0.303435081	11	2	1.1	0.9;
	135	1	0	0	0	0	8	0.920387455	0.159432601	11	2	1.1	0.9;
	136	1	0	0	0	0	8	0.952582455	0.187956884	11	2	1.1	0.9;
	137	1	0	0	0	0	8	0.921360357	0.162277321	11	2	1.1	0.9;
	138	1	0	0	0	0	8	0.956939416	0.0519220885	11	2	1.1	0.9;
	139	1	0	0	0	0	8	0.897059655	0.344111967	11	2	1.1	0.9;
	140	1	0	0	0	0	8	0.897073226	0.344281299	11	2	1.1	0.9;
	141	1	0	0	0	0	8	0.929800582	0.358622258	11	2	1.1	0.9;
	142	1	0	0	0	0	8	0.897046083	0.34394263	11	2	1.1	0.9;
	143	1	0	0	0	0	8	0.929792888	0.358509807	11	2	1.1	0.9;
	144	1	0	0	0	0	8	0.897075952	0.344321958	11	2	1.1	0.9;
	145	1	0	0	0	0	8	0.929810893	0.358772451	11	2	1.1	0.9;
	146	1	0	0	0	0	8	0.954158757	0.04442434	11	2	1.1	0.9;
	147	1	0	0	0	0	8	0.944474536	0.0800462578	11	2	1.1	0.9;
	148	1	0	0	0	0	8	0.959762736	0.0520181634	11	2	1.1	0.9;
	149	1	0	0	0	0	8	0.966624955	0.0846336734	11	2	1.1	0.9;
	150	1	0	0	0	0	8	0.926623054	0.152465534	11	2	1.1	0.9;
	151	1	0	0	0	0	8	0.926606264	0.152220751	11	2	1.1	0.9;
	152	1	0	0	0	0	8	0.926614668	0.152343144	11	2	1.1	0.9;
	153	1	0	0	0	0	8	0.919906633	0.231974094	11	2	1.1	0.9;
	154	1	0	0	0	0	8	0.92600587	0.379973601	11	2	1.1	0.9;
	155	1	0	0	0	0	8	0.952505314	0.052304066	11	2	1.1	0.9;
	156	1	0	0	0	0	8	0.924242616	0.165892022	11	2	1.1	0.9;
	157	1	0	0	0	0	8	0.932170649	0.121210661	11	2	1.1	0.9;
	158	1	0	0	0	0	8	0.928477821	0.367460314	11	2	1.1	0.9;
	159	1	0	0	0	0	8	0.928417226	0.367327749	11	2	1.1	0.9;
	160	1	0	0	0	0	8	0.967767128	0.0473378667	11	2	1.1	0.9;
	161	1	0	0	0	0	8	0.932617263	0.341272204	11	2	1.1	0.9;
	162	1	0	0	0	0	8	0.932847004	0.341754992	11	2	1.1	0.9;
	163	1	0	0	0	0	8	0.900945462	0.332708771	11	2	1.1	0.9;
	164	1	0	0	0	0	8	0.906099415	0.310069101	11	2	1.1	0.9;
	165	1	0	0	0	0	8	0.931967817	0.341696069	11	2	1.1	0.9;
	166	1	0	0	0	0	8	0.932102969	0.341985216	11	2	1.1	0.9;
	167	1	0	0	0	0	8	0.932265442	0.342328912	11	2	1.1	0.9;
	168	1	0	0	0	0	8	0.920810732	0.160916451	11	2	1.1	0.9;
	169	1	0	0	0	0	8	0.901354321	0.330851445	11	2	1.1	0.9;
	170	1	0	0	0	0	9	0.971434206	0.0487918088	11	2	1.1	0.9;
	171	1	0	0	0	0	9	0.971178556	0.049000744	11	2	1.1	0.9;
	173	1	0	0	0	0	8	0.945035346	0.0789462985	11	2	1.1	0.9;
	174	1	0	0	0	0	8	0.953889702	0.17797458	11	2	1.1	0.9;
	175	1	0	0	0	0	8	0.937992395	0.301055305	11	2	1.1	0.9;
	176	1	0	0	0	0	8	0.926811148	0.150955397	11	2	1.1	0.9;
	177	1	0	0	0	0	8	0.967872658	0.047374594	11	2	1.1	0.9;
	178	1	0	0	0	0	8	0.961610961	0.119462562	11	2	1.1	0.9;
	179	1	0	0	0	0	8	0.916682233	0.260891473	11	2	1.1	0.9;
	180	1	0	0	0	0	8	0.932359405	0.120646317	11	2	1.1	0.9;
	181	1	0	0	0	0	8	0.952021924	0.0559289044	11	2	1.1	0.9;
	182	1	0	0	0	0	8	0.944601091	0.0797044184	11	2	1.1	0.9;
	183	1	0	0	0	0	8	0.953397552	0.0481655037	11	2	1.1	0.9;
	184	1	0	0	0	0	8	0.898741829	0.339429171	11	2	1.1	0.9;
	185	1	0	0	0	0	8	0.936803565	0.310414684	11	2	1.1	0.9;
	186	1	0	0	0	0	8	0.920388091	0.159427865	11	2	1.1	0.9;
	187	1	0	0	0	0	8	0.951327846	0.197547171	11	2	1.1	0.9;
	188	1	0	0	0	0	8	0.928737755	0.366689974	11	2	1.1	0.9;
	189	1	0	0	0	0	8	0.89752659	0.342973181	11	2	1.1	0.9;
	190	1	0	0	0	0	8	0.956290788	0.0420013518	11	2	1.1	0.9;
	191	1	0	0	0	0	8	0.926515188	0.152949405	11	2	1.1	0.9;
	192	1	0	0	0	0	8	0.926615428	0.152329609	11	2	1.1	0.9;
	193	1	0	0	0	0	8	0.919635903	0.234170799	11	2	1.1	0.9;
	194	1	0	0	0	0	8	0.952275451	0.0540930111	11	2	1.1	0.9;
	195	1	0	0	0	0	8	0.920951572	0.160480445	11	2	1.1	0.9;
	196	1	0	0	0	0	8	0.932004683	0.121702958	11	2	1.1	0.9;
	197	1	0	0	0	0	8	0.927110099	0.371146444	11	2	1.1	0.9;
	198	1	0	0	0	0	8	0.966119484	0.0520548365	11	2	1.1	0.9;
	199	1	0	0	0	0	8	0.911926693	0.285900875	11	2	1.1	0.9;
	200	1	0	0	0	0	8	0.931749529	0.34341853	11	2	1.1	0.9;
	201	1	0	0	0	0	8	0.920769001	0.161046112	11	2	1.1	0.9;
	202	1	0	0	0	0	9	0.993294609	-0.00618880667	11	2	1.1	0.9;
	203	1	0	0	0	0	9	0.996487625	-0.00446476179	11	2	1.1	0.9;
	204	1	0	0	0	0	9	0.995308579	-0.0162960057	11	2	1.1	0.9;
	205	1	0	0	0	0	9	0.998060391	-0.00781727825	11	2	1.1	0.9;
	206	1	0	0	0	0	8	0.952967504	0.0486706141	11	2	1.1	0.9;
	207	1	0	0	0	0	8	0.900668025	0.334018198	11	2	1.1	0.9;
	208	1	0	0	0	0	8	0.934425488	0.329216278	11	2	1.1	0.9;
	209	1	0	0	0	0	8	0.897759659	0.342276386	11	2	1.1	0.9;
	210	1	0	0	0	0	8	0.95542577	0.0429735684	11	2	1.1	0.9;
	211	1	0	0	0	0	8	0.92531285	0.162601961	11	2	1.1	0.9;
	212	1	0	0	0	0	8	0.926615856	0.152319625	11	2	1.1	0.9;
	213	1	0	0	0	0	8	0.919117286	0.23839019	11	2	1.1	0.9;
	214	1	0	0	0	0	8	0.952095032	0.0555042069	11	2	1.1	0.9;
	215	1	0	0	0	0	8	0.927003701	0.371992372	11	2	1.1	0.9;
	216	1	0	0	0	0	9	0.981231903	0.0223960896	11	2	1.1	0.9;
	217	1	0	0	0	0	9	0.981269163	0.0260130586	11	2	1.1	0.9;
	218	1	0	0	0	0	8	0.971317939	0.0485562838	11	2	1.1	0.9;
	219	1	0	0	0	0	8	0.944488603	0.080030905	11	2	1.1	0.9;
	220	1	0	0	0	0	8	0.918424784	0.244047459	11	2	1.1	0.9;
	221	1	0	0	0	0	8	0.926316023	0.377483568	11	2	1.1	0.9;
	222	1	0	0	0	0	9	0.978917854	0.0202856696	11	2	1.1	0.9;
	223	1	0	0	0	0	9	0.978969553	0.0230793082	11	2	1.1	0.9;
	224	1	0	0	0	0	8	0.969188985	0.0648557812	11	2	1.1	0.9;
	225	1	0	0	0	0	9	0.977679884	0.0232733126	11	2	1.1	0.9;
	226	1	0	0	0	0	9	0.977615798	0.0258518797	11	2	1.1	0.9;
	227	1	0	0	0	0	9	0.974158882	0.0420976433	11	2	1.1	0.9;
	228	1	0	0	0	0	9	0.974142874	0.0431374687	11	2	1.1	0.9;
	229	1	0	0	0	0	8	0.97121885	0.0483189321	11	2	1.1	0.9;
	230	1	0	0	0	0	9	0.971178705	0.0490007439	11	2	1.1	0.9;
	231	1	0	0	0	0	8	0.971218766	0.0483201055	11	2	1.1	0.9;
	232	1	0	0	0	0	9	0.969906299	0.0485212475	11	2	1.1	0.9;
	233	1	0	0	0	0	9	0.964033234	0.0481624639	11	2	1.1	0.9;
	234	1	0	0	0	0	9	0.955602522	0.0477157855	11	2	1.1	0.9;
	235	1	0.0666668	0.277783334	0	0	8	0.940561281	29.9212048	0.415	2	1.1	0.9;
	236	1	0	0	0	0	9	0.95531351	0.0477018791	11	2	1.1	0.9;
	237	1	0.0666668	0.277783334	0	0	8	0.940267569	29.9211131	0.415	2	1.1	0.9;
	238	1	0	0	0	0	9	0.948648737	0.0666741797	11	2	1.1	0.9;
	239	1	0.0666668	0.277783334	0	0	8	0.928778416	29.8958864	0.415	2	1.1	0.9;
	240	1	0	0	0	0	9	0.948624402	0.0663255132	11	2	1.1	0.9;
	241	1	0.0666668	0.277783334	0	0	8	0.928753549	29.8955287	0.415	2	1.1	0.9;
	242	1	0	0	0	0	9	0.93848787	0.0958002981	11	2	1.1	0.9;
	243	1	0.0666668	0.277783334	0	0	8	0.923163068	29.9645545	0.415	2	1.1	0.9;
	244	1	0	0	0	0	9	0.9373246	0.0992387187	11	2	1.1	0.9;
	245	1	0	0	0	0	9	0.9362274	0.102497082	11	2	1.1	0.9;
	246	1	0	0	0	0	9	0.934522115	0.107591132	11	2	1.1	0.9;
	247	1	0.0666668	0.277783334	0	0	8	0.92198013	29.9676614	0.415	2	1.1	0.9;
	248	1	0.0666668	0.277783334	0	0	8	0.920864332	29.9706059	0.415	2	1.1	0.9;
	249	1	0	0	0	0	9	0.949881854	0.0517052909	11	2	1.1	0.9;
	250	1	0	0	0	0	9	0.948585583	0.0617300352	11	2	1.1	0.9;
	251	1	0.1333332	0.55555	0	0	9	0.891912235	29.9505869	0.415	2	1.1	0.9;
	252	1	0.1333332	0.55555	0	0	9	0.878333778	30.0348858	0.415	2	1.1	0.9;
	253	1	0.1	0.416666667	0	0	9	0.897083838	30.1047386	0.433	2	1.1	0.9;
	254	1	0.1	0.416666667	0	0	9	0.897021044	30.1045705	0.433	2	1.1	0.9;
	255	1	0	0	0	0	9	0.971443284	0.0485900407	11	2	1.1	0.9;
	256	1	0	0	0	0	9	0.930439162	0.353785424	11	2	1.1	0.9;
	257	1	0	0	0	0	8	0.971470592	0.0479831189	11	2	1.1	0.9;
	258	1	0	0	0	0	8	0.894628277	0.364126351	11	2	1.1	0.9;
	259	1	0.186	0.918333335	0	0	8	0.839175815	29.9369814	0.415	2	1.1	0.9;
	260	1	0	0	0	0	8	0.894628271	0.364126456	11	2	1.1	0.9;
	261	1	0	0	0	0	9	0.894820492	0.363040593	11	2	1.1	0.9;
	262	1	0	0	0	0	9	0.896085581	0.349331044	11	2	1.1	0.9;
	263	1	0	0	0	0	8	0.925614441	0.381172823	11	2	1.1	0.9;
	264	1	0	0	0	0	8	0.925558476	0.381345064	11	2	1.1	0.9;
	265	1	0	0	0	0	8	0.925502499	0.381517535	11	2	1.1	0.9;
	266	1	0	0	0	0	8	0.893629196	30.099679	0.415	2	1.1	0.9;
	267	1	0.1	0.416666667	0	0	8	0.879210159	30.0643936	0.415	2	1.1	0.9;
	268	1	0	0	0	0	8	0.925366652	0.381933112	11	2	1.1	0.9;
	269	1	0	0	0	0	8	0.925230528	0.382353766	11	2	1.1	0.9;
	270	1	0	0	0	0	8	0.893310812	30.1163546	0.415	2	1.1	0.9;
	271	1	0.1	0.416666667	0	0	8	0.878886464	30.0810436	0.415	2	1.1	0.9;
	272	1	0	0	0	0	9	0.948050995	0.0632721756	11	2	1.1	0.9;
	273	1	0	0	0	0	8	0.924749295	29.8665572	0.415	2	1.1	0.9;
	274	1	0.1	0.416666667	0	0	8	0.910830845	29.833643	0.415	2	1.1	0.9;
	275	1	0.1	0.416666667	0	0	8	0.909277483	30.1401366	0.415	2	1.1	0.9;
	276	1	0.186	0.918333335	0	0	8	0.839175815	29.9369814	0.415	2	1.1	0.9;
	277	1	0.186	0.918333335	0	0	8	0.839175815	29.9369814	0.415	2	1.1	0.9;
	279	1	0	0	0	0	8	0.92153167	0.162993501	11	2	1.1	0.9;
	280	1	0	0	0	0	8	0.92124331	0.162386369	11	2	1.1	0.9;
	281	1	0	0	0	0	8	0.924238109	0.165826343	11	2	1.1	0.9;
	282	1	0	0	0	0	9	0.920388095	0.159441926	11	2	1.1	0.9;
	283	1	0	0	0	0	9	0.97121885	0.0483189321	11	1	1.1	0.9;
	284	1	0	0	0	0	8	0.946446967	0.0679052132	11	1	1.1	0.9;
	285	1	0	0	0	0	8	0.918272248	0.245236645	11	1	1.1	0.9;
	287	1	0	0	0	0	8	0.944476357	0.0800046199	11	1	1.1	0.9;
	288	1	0	0	0	0	8	0.929810893	0.358772451	11	1	1.1	0.9;
];

%% generator data
%	bus	Pg	Qg	Qmax	Qmin	Vg	mBase	status	Pmax	Pmin	Pc1	Pc2	Qc1min	Qc1max	Qc2min	Qc2max	ramp_agc	ramp_10	ramp_30	ramp_q	apf	mu_Pmax	mu_Pmin	mu_Qmax	mu_Qmin
mpc.gen = [
	99	7.79699107	32.7614549	9999	-9999	1	178.49875	1	9999	-9999	0	0	0	0	0	0	0	0	0	0	0	0.0000	0.0000	0.0000	0.0000;
];

%% branch data
%	fbus	tbus	r	x	b	rateA	rateB	rateC	ratio	angle	status	angmin	angmax	Pf	Qf	Pt	Qt
mpc.branch = [
	142	114	0.0022078512	0.004586777	2.99838e-06	0	0	0	0	0	1	-360	360	0.0000	-0.0002	-0.0000	-0.0000;
	183	206	0.0086902479	0.0339900825	2.172724e-05	0	0	0	0	0	1	-360	360	0.2674	1.1369	-0.2672	-1.1384;
	97	204	0.011222479	0.057252895	4.256877e-05	0	0	0	0	0	1	-360	360	1.8881	7.2677	-1.8817	-7.2396;
	223	226	0.0036072727	0.014109091	9.018856e-06	0	0	0	0	0	1	-360	360	1.9461	8.8951	-1.9430	-8.8838;
	228	170	0.0072145455	0.028218182	1.803771e-05	0	0	0	0	0	1	-360	360	1.9334	8.8557	-1.9271	-8.8329;
	226	228	0.011060661	0.0357933885	2.981924e-05	0	0	0	0	0	1	-360	360	1.9430	8.8838	-1.9334	-8.8557;
	217	223	0.0047573554	0.024270248	1.804546e-05	0	0	0	0	0	1	-360	360	1.9502	8.9144	-1.9461	-8.8951;
	203	217	0.040581818	0.158727275	0.0001014621	0	0	0	0	0	1	-360	360	1.9853	9.0416	-1.9502	-8.9144;
	96	203	0.006465124	0.0329826445	2.452331e-05	0	0	0	0	0	1	-360	360	1.9908	9.0676	-1.9853	-9.0416;
	227	170	0.0072145455	0.028218182	1.803771e-05	0	0	0	0	0	1	-360	360	1.8896	8.9223	-1.8832	-8.8993;
	225	227	0.011151322	0.036086777	3.006366e-05	0	0	0	0	0	1	-360	360	1.8993	8.9511	-1.8896	-8.9223;
	222	225	0.0032793388	0.0128264465	8.19896e-06	0	0	0	0	0	1	-360	360	1.9022	8.9615	-1.8993	-8.9511;
	127	183	0.012501818	0.0331772725	1.711799e-05	0	0	0	0	0	1	-360	360	0.2675	1.1359	-0.2674	-1.1369;
	216	222	0.0047573554	0.024270248	1.804546e-05	0	0	0	0	0	1	-360	360	1.9064	8.9810	-1.9022	-8.9615;
	202	216	0.031973554	0.12505785	7.993986e-05	0	0	0	0	0	1	-360	360	1.9343	9.0826	-1.9064	-8.9810;
	95	202	0.01299124	0.066276445	4.927798e-05	0	0	0	0	0	1	-360	360	1.9457	9.1356	-1.9343	-9.0826;
	132	148	0.010729223	0.045298347	2.126165e-05	0	0	0	0	0	1	-360	360	0.8759	3.7044	-0.8743	-3.6993;
	148	138	0.019912711	0.08407066	3.946019e-05	0	0	0	0	0	1	-360	360	0.7246	3.0497	-0.7225	-3.0443;
	147	110	0.032580496	0.086461985	4.461052e-05	0	0	0	0	0	1	-360	360	0.0000	-0.0040	0.0000	-0.0000;
	193	213	0.01401719	0.0371987605	1.91929e-05	0	0	0	0	0	1	-360	360	0.2765	1.1771	-0.2763	-1.1781;
	179	153	0.014774876	0.039209504	2.023035e-05	0	0	0	0	0	1	-360	360	-1.5368	-6.9598	1.5458	6.9818;
	153	193	0.0073242975	0.01943719	1.002872e-05	0	0	0	0	0	1	-360	360	0.2767	1.1766	-0.2765	-1.1771;
	59	58	0.5806358	2.903179	0	0	0	0	0	0	1	-360	360	0.0673	0.2808	-0.0667	-0.2778;
	146	127	0.0048370248	0.0189190085	1.209346e-05	0	0	0	0	0	1	-360	360	0.3703	1.5730	-0.3702	-1.5736;
	61	60	0.5806358	2.903179	0	0	0	0	0	0	1	-360	360	0.1014	0.4235	-0.1000	-0.4167;
	281	104	0.010021818	0.0348	1.445114e-05	0	0	0	0	0	1	-360	360	0.2370	1.0080	-0.2368	-1.0088;
	67	66	0.5806358	2.903179	0	0	0	0	0	0	1	-360	360	0.1014	0.4236	-0.1000	-0.4167;
	180	157	0.0014804959	0.005140909	2.134828e-06	0	0	0	0	0	1	-360	360	0.7566	3.2053	-0.7564	-3.2049;
	157	196	0.0015943802	0.0055363635	2.299046e-06	0	0	0	0	0	1	-360	360	0.6186	2.6162	-0.6185	-2.6159;
	196	118	0.023460165	0.081463635	3.382882e-05	0	0	0	0	0	1	-360	360	0.6185	2.6159	-0.6165	-2.6120;
	69	68	0.5806358	2.903179	0	0	0	0	0	0	1	-360	360	0.1358	0.5678	-0.1333	-0.5555;
	27	26	0.5806358	2.903179	0	0	0	0	0	0	1	-360	360	0.1013	0.4232	-0.1000	-0.4167;
	112	188	0.019447273	0.05160909	2.662798e-05	0	0	0	0	0	1	-360	360	0.4106	1.7312	-0.4099	-1.7316;
	30	29	0.5806358	2.903179	0	0	0	0	0	0	1	-360	360	0.1013	0.4231	-0.1000	-0.4167;
	159	197	0.037581818	0.1305	5.419179e-05	0	0	0	0	0	1	-360	360	0.2067	0.8681	-0.2064	-0.8715;
	63	62	2.903179	14.515895	0	0	0	0	0	0	1	-360	360	0.1518	0.6476	-0.1333	-0.5555;
	173	115	0.035358678	0.09383471	4.841451e-05	0	0	0	0	0	1	-360	360	-0.3083	-1.3077	0.3090	1.3052;
	55	70	2.903179	14.515895	0	0	0	0	0	0	1	-360	360	0.1473	0.6256	-0.1333	-0.5555;
	71	253	0.053336462	0.26668231	0	0	0	0	0	0	1	-360	360	0.1001	0.4173	-0.1000	-0.4167;
	72	254	0.053336462	0.26668231	0	0	0	0	0	0	1	-360	360	0.1001	0.4173	-0.1000	-0.4167;
	197	215	0.0039147107	0.010388843	5.360178e-06	0	0	0	0	0	1	-360	360	0.2064	0.8715	-0.2063	-0.8719;
	215	221	0.025256198	0.067024795	3.45818e-05	0	0	0	0	0	1	-360	360	0.2063	0.8719	-0.2061	-0.8742;
	210	146	0.014511074	0.056757025	3.628039e-05	0	0	0	0	0	1	-360	360	0.4737	2.0101	-0.4730	-2.0107;
	221	154	0.011365289	0.030161157	1.556181e-05	0	0	0	0	0	1	-360	360	0.2061	0.8742	-0.2060	-0.8753;
	188	158	0.0037581818	0.01305	5.419179e-06	0	0	0	0	0	1	-360	360	0.4099	1.7316	-0.4098	-1.7316;
	107	177	0.01327514	0.056047105	2.630679e-05	0	0	0	0	0	1	-360	360	1.2269	5.0452	-1.2231	-5.0316;
	177	160	0.0004546281	0.0019194215	9.009175e-07	0	0	0	0	0	1	-360	360	1.2231	5.0316	-1.2229	-5.0312;
	160	198	0.0093385124	0.0324272725	1.346584e-05	0	0	0	0	0	1	-360	360	1.0885	4.6032	-1.0862	-4.5967;
	198	131	0.021185669	0.08944504	4.198276e-05	0	0	0	0	0	1	-360	360	1.0862	4.5967	-1.0812	-4.5792;
	74	73	0.05806358	0.2903179	0	0	0	0	0	0	1	-360	360	0.1335	0.4173	-0.1333	-0.4167;
	199	119	0.0061877686	0.0164210745	8.47254e-06	0	0	0	0	0	1	-360	360	-1.3204	-6.0480	1.3233	6.0548;
	207	163	0.0014804959	0.005140909	2.134828e-06	0	0	0	0	0	1	-360	360	-0.9595	-4.5844	0.9599	4.5856;
	163	169	0.0019360331	0.0067227275	2.791698e-06	0	0	0	0	0	1	-360	360	-1.0955	-5.1639	1.0962	5.1660;
	190	210	0.00992	0.0388	2.480185e-05	0	0	0	0	0	1	-360	360	0.4741	2.0096	-0.4737	-2.0101;
	164	199	0.023801818	0.08265	3.432147e-05	0	0	0	0	0	1	-360	360	-1.3094	-6.0127	1.3204	6.0480;
	184	207	0.0091821488	0.0359140495	2.295709e-05	0	0	0	0	0	1	-360	360	-0.9570	-4.5765	0.9595	4.5844;
	79	80	0.053336462	0.26668231	0	0	0	0	0	0	1	-360	360	-0.1333	-0.5555	0.1336	0.5567;
	162	208	0.0092185124	0.0244640495	1.262236e-05	0	0	0	0	0	1	-360	360	-1.3032	-5.5284	1.3066	5.5363;
	208	185	0.013890909	0.0368636365	1.901999e-05	0	0	0	0	0	1	-360	360	-1.3066	-5.5363	1.3118	5.5483;
	76	75	0.5806358	2.903179	0	0	0	0	0	0	1	-360	360	0.1013	0.4233	-0.1000	-0.4167;
	78	77	0.0008264463	0.0041322315	0	0	0	0	0	0	1	-360	360	0.1333	0.5556	-0.1333	-0.5556;
	82	81	0.053336462	0.26668231	0	0	0	0	0	0	1	-360	360	0.0667	0.2224	-0.0667	-0.2222;
	85	86	0.5806358	2.903179	0	0	0	0	0	0	1	-360	360	-0.1333	-0.5555	0.1358	0.5678;
	149	190	0.077485289	0.473477685	1.39179e-06	0	0	0	0	0	1	-360	360	0.4777	2.0316	-0.4741	-2.0096;
	83	84	0.5806358	2.903179	0	0	0	0	0	0	1	-360	360	-0.1333	-0.5555	0.1358	0.5678;
	87	88	0.53336462	2.6668231	0	0	0	0	0	0	1	-360	360	-0.1333	-0.5556	0.1356	0.5667;
	106	153	0.14349421	0.498272725	0.0002069141	0	0	0	0	0	1	-360	360	2.1180	9.3418	-1.9781	-8.8744;
	101	195	0.025256281	0.15432975	4.536532e-07	0	0	0	0	0	1	-360	360	0.1362	0.5799	-0.1361	-0.5793;
	195	168	0.0060358678	0.020959091	8.70353e-06	0	0	0	0	0	1	-360	360	0.1361	0.5793	-0.1361	-0.5799;
	168	201	0.007288595	0.025309091	1.050992e-05	0	0	0	0	0	1	-360	360	0.0334	0.1418	-0.0334	-0.1427;
	201	94	0.011769917	0.07192066	2.114112e-07	0	0	0	0	0	1	-360	360	0.0334	0.1427	-0.0334	-0.1427;
	89	90	0.53336462	2.6668231	0	0	0	0	0	0	1	-360	360	-0.1000	-0.4167	0.1013	0.4230;
	169	164	0.020157521	0.069995455	2.906651e-05	0	0	0	0	0	1	-360	360	-1.2341	-5.7561	1.2427	5.7836;
	52	51	0.5806358	2.903179	0	0	0	0	0	0	1	-360	360	0.1013	0.4231	-0.1000	-0.4167;
	218	224	0.027402975	0.0727219	3.752125e-05	0	0	0	0	0	1	-360	360	0.6158	2.6098	-0.6137	-2.6078;
	224	149	0.032959339	0.087467355	4.512924e-05	0	0	0	0	0	1	-360	360	0.6137	2.6078	-0.6112	-2.6053;
	36	35	0.5806358	2.903179	0	0	0	0	0	0	1	-360	360	0.1015	0.4240	-0.1000	-0.4167;
	220	128	0.0040409917	0.010723967	5.533087e-06	0	0	0	0	0	1	-360	360	0.2760	1.1794	-0.2759	-1.1797;
	213	220	0.018689587	0.049598347	2.559053e-05	0	0	0	0	0	1	-360	360	0.2763	1.1781	-0.2760	-1.1794;
	119	179	0.012755041	0.044290909	1.839237e-05	0	0	0	0	0	1	-360	360	-1.5291	-6.9346	1.5368	6.9598;
	32	31	0.5806358	2.903179	0	0	0	0	0	0	1	-360	360	0.1359	0.5682	-0.1333	-0.5555;
	34	33	0.5806358	2.903179	0	0	0	0	0	0	1	-360	360	0.1359	0.5682	-0.1333	-0.5555;
	14	12	0.5806358	2.903179	0	0	0	0	0	0	1	-360	360	0.1014	0.4238	-0.1000	-0.4167;
	15	13	0.5806358	2.903179	0	0	0	0	0	0	1	-360	360	0.1014	0.4238	-0.1000	-0.4167;
	130	184	0.0024595041	0.0096198345	6.149219e-06	0	0	0	0	0	1	-360	360	-0.9563	-4.5744	0.9570	4.5765;
	209	130	0.0024595041	0.0096198345	6.149219e-06	0	0	0	0	0	1	-360	360	-0.8527	-4.1320	0.8533	4.1337;
	144	189	0.0023775207	0.0092991735	5.944245e-06	0	0	0	0	0	1	-360	360	-0.8519	-4.1297	0.8525	4.1312;
	189	209	0.0012297521	0.0048099175	3.07461e-06	0	0	0	0	0	1	-360	360	-0.8525	-4.1312	0.8527	4.1320;
	47	46	0.5806358	2.903179	0	0	0	0	0	0	1	-360	360	0.1360	0.5689	-0.1333	-0.5555;
	49	48	0.5806358	2.903179	0	0	0	0	0	0	1	-360	360	0.1360	0.5689	-0.1333	-0.5555;
	50	252	0.5806358	2.903179	0	0	0	0	0	0	1	-360	360	0.1358	0.5678	-0.1333	-0.5555;
	256	145	0.0087133884	0.0231235535	1.193072e-05	0	0	0	0	0	1	-360	360	0.5490	2.3206	-0.5484	-2.3201;
	200	256	0.018184463	0.048257851	2.489889e-05	0	0	0	0	0	1	-360	360	0.5502	2.3216	-0.5490	-2.3206;
	181	109	0.018310744	0.048592975	2.50718e-05	0	0	0	0	0	1	-360	360	0.0000	-0.0023	0.0000	0.0000;
	165	200	0.0030307438	0.008042975	4.149816e-06	0	0	0	0	0	1	-360	360	0.5504	2.3218	-0.5502	-2.3216;
	161	167	0.0021638017	0.0075136365	3.120134e-06	0	0	0	0	0	1	-360	360	0.9642	4.0891	-0.9638	-4.0879;
	117	175	0.026897851	0.071381405	3.682961e-05	0	0	0	0	0	1	-360	360	1.3243	5.5775	-1.3144	-5.5543;
	134	185	0.0051775207	0.0137400825	7.089268e-06	0	0	0	0	0	1	-360	360	1.3137	5.5528	-1.3118	-5.5483;
	175	134	0.0017679339	0.0046917355	2.420726e-06	0	0	0	0	0	1	-360	360	1.3144	5.5543	-1.3137	-5.5528;
	187	117	0.042177851	0.111931405	5.77516e-05	0	0	0	0	0	1	-360	360	1.6225	6.8087	-1.5997	-6.7532;
	8	7	0.5806358	2.903179	0	0	0	0	0	0	1	-360	360	0.1357	0.5675	-0.1333	-0.5555;
	9	251	0.5806358	2.903179	0	0	0	0	0	0	1	-360	360	0.1357	0.5675	-0.1333	-0.5555;
	136	187	0.0060614876	0.0160859505	8.299631e-06	0	0	0	0	0	1	-360	360	1.6258	6.8166	-1.6225	-6.8087;
	174	136	0.0060614876	0.0160859505	8.299631e-06	0	0	0	0	0	1	-360	360	1.6961	7.1125	-1.6926	-7.1038;
	122	181	0.016478678	0.064452895	4.119977e-05	0	0	0	0	0	1	-360	360	0.0000	-0.0060	-0.0000	0.0023;
	116	174	0.010860165	0.028820661	1.487017e-05	0	0	0	0	0	1	-360	360	1.7025	7.1281	-1.6961	-7.1125;
	178	116	0.022225455	0.05898182	3.043198e-05	0	0	0	0	0	1	-360	360	1.9242	8.0441	-1.9078	-8.0033;
	6	4	0.5806358	2.903179	0	0	0	0	0	0	1	-360	360	0.1013	0.4231	-0.1000	-0.4167;
	5	3	0.5806358	2.903179	0	0	0	0	0	0	1	-360	360	0.1013	0.4231	-0.1000	-0.4167;
	108	178	0.039399669	0.10455868	5.39476e-05	0	0	0	0	0	1	-360	360	1.9533	8.1164	-1.9242	-8.0441;
	182	219	0.0066052893	0.0229363635	9.524618e-06	0	0	0	0	0	1	-360	360	0.1027	0.4333	-0.1027	-0.4341;
	219	147	0.0007378512	0.0028859505	1.844766e-06	0	0	0	0	0	1	-360	360	0.1027	0.4341	-0.1027	-0.4342;
	54	53	0.5806358	2.903179	0	0	0	0	0	0	1	-360	360	0.1013	0.4233	-0.1000	-0.4167;
	124	182	0.010932893	0.0379636365	1.576488e-05	0	0	0	0	0	1	-360	360	0.1028	0.4319	-0.1027	-0.4333;
	214	123	0.0036621488	0.009718595	5.014361e-06	0	0	0	0	0	1	-360	360	0.1335	0.5679	-0.1335	-0.5683;
	173	125	0.0042631405	0.01667438	1.065865e-05	0	0	0	0	0	1	-360	360	0.3083	1.3077	-0.3082	-1.3083;
	25	24	0.5806358	2.903179	0	0	0	0	0	0	1	-360	360	0.1013	0.4233	-0.1000	-0.4167;
	23	22	0.5806358	2.903179	0	0	0	0	0	0	1	-360	360	0.1013	0.4233	-0.1000	-0.4167;
	272	115	0.021865785	0.075927275	3.152977e-05	0	0	0	0	0	1	-360	360	0.4444	1.8735	-0.4435	-1.8731;
	138	249	0.054828149	0.23148223	0.0001086507	0	0	0	0	0	1	-360	360	0.6557	2.7573	-0.6509	-2.7468;
	40	39	0.5806358	2.903179	0	0	0	0	0	0	1	-360	360	0.1013	0.4230	-0.1000	-0.4167;
	38	37	0.5806358	2.903179	0	0	0	0	0	0	1	-360	360	0.1013	0.4230	-0.1000	-0.4167;
	186	113	0.0047008264	0.0051768595	2.408384e-06	0	0	0	0	0	1	-360	360	0.0000	-0.0002	-0.0000	-0.0000;
	100	186	0.012261983	0.10256033	3.5816e-07	0	0	0	0	0	1	-360	360	0.0000	-0.0002	-0.0000	0.0002;
	135	100	0.016901653	0.14136694	4.9368e-07	0	0	0	0	0	1	-360	360	0.0000	-0.0003	-0.0000	0.0002;
	155	194	0.013385785	0.0355231405	1.832835e-05	0	0	0	0	0	1	-360	360	0.1336	0.5652	-0.1335	-0.5667;
	94	282	0.026972727	0.16481818	4.84484e-07	0	0	0	0	0	1	-360	360	0.0334	0.1427	-0.0334	-0.1427;
	91	92	0.53336462	2.6668231	0	0	0	0	0	0	1	-360	360	-0.1333	-0.5555	0.1357	0.5676;
	104	93	0.018904793	0.065645455	2.726011e-05	0	0	0	0	0	1	-360	360	0.2368	1.0088	-0.2366	-1.0103;
	93	101	0.01593843	0.09739256	2.86286e-07	0	0	0	0	0	1	-360	360	0.2366	1.0103	-0.2364	-1.0091;
	102	103	0.0090726446	0.055438845	1.629628e-07	0	0	0	0	0	1	-360	360	0.0668	0.2861	-0.0667	-0.2861;
	279	137	0.017409669	0.106382645	3.127124e-07	0	0	0	0	0	1	-360	360	0.0334	0.1429	-0.0334	-0.1429;
	101	102	0.01446719	0.08840248	2.598596e-07	0	0	0	0	0	1	-360	360	0.1002	0.4292	-0.1001	-0.4291;
	103	126	0.0084442975	0.033028099	2.111232e-05	0	0	0	0	0	1	-360	360	0.0667	0.2861	-0.0667	-0.2879;
	211	156	0.018449256	0.064063635	2.660324e-05	0	0	0	0	0	1	-360	360	0.3403	1.4467	-0.3398	-1.4473;
	194	214	0.010481322	0.0278152895	1.435145e-05	0	0	0	0	0	1	-360	360	0.1335	0.5667	-0.1335	-0.5679;
	191	211	0.026645289	0.070711155	3.648379e-05	0	0	0	0	0	1	-360	360	0.3410	1.4454	-0.3403	-1.4467;
	151	191	0.0020204959	0.0053619835	2.766544e-06	0	0	0	0	0	1	-360	360	0.3410	1.4453	-0.3410	-1.4454;
	176	150	0.0027781818	0.0073727275	3.803998e-06	0	0	0	0	0	1	-360	360	0.5114	2.1716	-0.5112	-2.1715;
	118	176	0.040662479	0.107909915	5.567669e-05	0	0	0	0	0	1	-360	360	0.5137	2.1731	-0.5114	-2.1716;
	192	212	0.0053038017	0.0140752065	7.262178e-06	0	0	0	0	0	1	-360	360	0.0000	-0.0031	-0.0000	0.0025;
	212	111	0.021341488	0.05663595	2.922162e-05	0	0	0	0	0	1	-360	360	0.0000	-0.0025	0.0000	0.0000;
	152	192	0.0058080992	0.020168182	8.375095e-06	0	0	0	0	0	1	-360	360	0.0000	-0.0039	-0.0000	0.0031;
	120	180	0.01401719	0.0371987605	1.91929e-05	0	0	0	0	0	1	-360	360	0.7583	3.2083	-0.7566	-3.2053;
	11	10	0.5806358	2.903179	0	0	0	0	0	0	1	-360	360	0.1014	0.4235	-0.1000	-0.4167;
	240	242	0.048856364	0.16965	7.044934e-05	0	0	0	0	0	1	-360	360	1.2580	5.3026	-1.2419	-5.2528;
	206	155	0.013385785	0.0355231405	1.832835e-05	0	0	0	0	0	1	-360	360	0.2672	1.1384	-0.2670	-1.1395;
	242	244	0.0059219835	0.0205636365	8.539314e-06	0	0	0	0	0	1	-360	360	1.1747	4.9703	-1.1730	-4.9649;
	17	16	0.5806358	2.903179	0	0	0	0	0	0	1	-360	360	0.1358	0.5677	-0.1333	-0.5555;
	19	18	0.5806358	2.903179	0	0	0	0	0	0	1	-360	360	0.1358	0.5677	-0.1333	-0.5555;
	133	232	0.0012729587	0.00537438	2.522569e-06	0	0	0	0	0	1	-360	360	1.5625	6.5646	-1.5619	-6.5622;
	105	133	0.0027277686	0.011516529	5.405505e-06	0	0	0	0	0	1	-360	360	1.6306	6.8569	-1.6292	-6.8514;
	205	171	0.10507628	0.34003719	0.0002832828	0	0	0	0	0	1	-360	360	1.9677	7.2682	-1.9076	-7.1014;
	98	205	0.004147438	0.0211586775	1.573194e-05	0	0	0	0	0	1	-360	360	1.9700	7.2787	-1.9677	-7.2682;
	204	171	0.094740909	0.30659091	0.0002554189	0	0	0	0	0	1	-360	360	1.8817	7.2396	-1.8280	-7.0905;
	122	123	0.0008264463	0.0041322315	0	0	0	0	0	0	1	-360	360	-0.0667	-0.2812	0.0667	0.2812;
	139	144	-0	0.00041322315	0	0	0	0	0	0	1	-360	360	-0.7137	-3.5379	0.7137	3.5379;
	142	139	-0	0.00041322315	0	0	0	0	0	0	1	-360	360	-0.5755	-2.9461	0.5755	2.9462;
	170	106	0.0008264463	0.0041322315	0	0	0	0	0	0	1	-360	360	2.1188	9.3458	-2.1180	-9.3418;
	171	108	-0	0.00041322315	0	0	0	0	0	0	1	-360	360	1.9533	8.1167	-1.9533	-8.1164;
	166	167	0.0008264463	0.0041322315	0	0	0	0	0	0	1	-360	360	-0.8261	-3.4997	0.8262	3.5003;
	125	124	-0	0.00041322315	0	0	0	0	0	0	1	-360	360	0.2055	0.8701	-0.2055	-0.8701;
	131	132	-0	0.00041322315	0	0	0	0	0	0	1	-360	360	0.9785	4.1419	-0.9785	-4.1418;
	171	107	0.0008264463	0.0041322315	0	0	0	0	0	0	1	-360	360	1.2271	5.0464	-1.2269	-5.0452;
	171	105	-0	0.00041322315	0	0	0	0	0	0	1	-360	360	1.6306	6.8571	-1.6306	-6.8569;
	129	128	-0	0.00041322315	0	0	0	0	0	0	1	-360	360	-0.1379	-0.5898	0.1379	0.5898;
	152	151	-0	0.00041322315	0	0	0	0	0	0	1	-360	360	0.4439	1.8844	-0.4439	-1.8844;
	150	152	-0	0.00041322315	0	0	0	0	0	0	1	-360	360	0.4439	1.8806	-0.4439	-1.8806;
	121	120	-0	0.00041322315	0	0	0	0	0	0	1	-360	360	0.8961	3.7969	-0.8961	-3.7969;
	170	171	0.0008264463	0.0041322315	0	0	0	0	0	0	1	-360	360	1.0757	5.7948	-1.0754	-5.7933;
	99	98	0.0008264463	0.0041322315	0	0	0	0	0	0	1	-360	360	1.9705	7.2810	-1.9700	-7.2787;
	99	97	0.0008264463	0.0041322315	0	0	0	0	0	0	1	-360	360	1.8885	7.2700	-1.8881	-7.2677;
	99	96	0.0008264463	0.0041322315	0	0	0	0	0	0	1	-360	360	1.9916	9.0712	-1.9908	-9.0676;
	99	95	0.0008264463	0.0041322315	0	0	0	0	0	0	1	-360	360	1.9464	9.1392	-1.9457	-9.1356;
	287	110	-0	0.00041322315	0	0	0	0	0	0	1	-360	360	0.0000	0.0000	0.0000	0.0000;
	158	159	0.0008264463	0.0041322315	0	0	0	0	0	0	1	-360	360	0.3082	1.2999	-0.3082	-1.2998;
	285	129	-0	0.00041322315	0	0	0	0	0	0	1	-360	360	0.0000	0.0000	0.0000	0.0000;
	284	115	0.0008264463	0.0041322315	0	0	0	0	0	0	1	-360	360	0.0000	0.0000	0.0000	0.0000;
	162	161	0.0008264463	0.0041322315	0	0	0	0	0	0	1	-360	360	1.1680	4.9528	-1.1677	-4.9516;
	166	165	0.0008264463	0.0041322315	0	0	0	0	0	0	1	-360	360	0.6883	2.9110	-0.6882	-2.9105;
	170	218	0.0008264463	0.0041322315	0	0	0	0	0	0	1	-360	360	0.6159	2.6101	-0.6158	-2.6098;
	143	112	-0	0.00041322315	0	0	0	0	0	0	1	-360	360	0.4106	1.7312	-0.4106	-1.7312;
	141	143	-0	0.00041322315	0	0	0	0	0	0	1	-360	360	0.4106	1.7312	-0.4106	-1.7312;
	145	141	-0	0.00041322315	0	0	0	0	0	0	1	-360	360	0.5484	2.3201	-0.5484	-2.3201;
	288	145	-0	0.00041322315	0	0	0	0	0	0	1	-360	360	0.0000	0.0000	0.0000	0.0000;
	144	140	-0	0.00041322315	0	0	0	0	0	0	1	-360	360	0.1382	0.5917	-0.1382	-0.5917;
	231	230	0.062636364	0.2175	0.0003612786	0	0	0	0	0	1	-360	360	-0.0000	0.0008	0.0000	-0.0349;
	229	283	-0	0.00041322315	0	0	0	0	0	0	1	-360	360	0.0000	0.0000	0.0000	0.0000;
	231	229	0.004546281	0.019194215	9.009175e-06	0	0	0	0	0	1	-360	360	0.0000	-0.0008	0.0000	0.0000;
	171	230	-0	0.00041322315	0	0	0	0	0	0	1	-360	360	0.0000	-0.0349	-0.0000	0.0349;
	232	233	0.019458083	0.08215124	3.855927e-05	0	0	0	0	0	1	-360	360	1.5619	6.5622	-1.5524	-6.5260;
	233	234	0.027914165	0.11785248	5.531633e-05	0	0	0	0	0	1	-360	360	1.5524	6.5260	-1.5389	-6.4740;
	234	236	0.0010001818	0.0042227275	1.982018e-06	0	0	0	0	0	1	-360	360	1.4718	6.1917	-1.4714	-6.1900;
	236	238	0.029040496	0.10084091	4.187548e-05	0	0	0	0	0	1	-360	360	1.4043	5.9076	-1.3925	-5.8706;
	238	240	-0	0.00041322315	0	0	0	0	0	0	1	-360	360	1.3253	5.5867	-1.3253	-5.5865;
	244	245	0.0059219835	0.0205636365	8.539314e-06	0	0	0	0	0	1	-360	360	1.1059	4.6824	-1.1043	-4.6777;
	245	246	0.0097940496	0.034009091	1.412271e-05	0	0	0	0	0	1	-360	360	1.0372	4.3951	-1.0349	-4.3885;
	246	121	0.0043276033	0.0150272725	6.240268e-06	0	0	0	0	0	1	-360	360	1.0349	4.3885	-1.0339	-4.3855;
	249	250	0.018437025	0.048928099	2.524471e-05	0	0	0	0	0	1	-360	360	0.5482	2.3089	-0.5471	-2.3081;
	170	255	0.019194711	0.050938845	2.628217e-05	0	0	0	0	0	1	-360	360	0.0000	-0.0186	-0.0000	0.0161;
	255	257	0.12438678	0.330097105	0.0001703153	0	0	0	0	0	1	-360	360	0.0000	-0.0161	0.0000	-0.0000;
	258	260	0.0015943802	0.0055363635	2.299046e-06	0	0	0	0	0	1	-360	360	0.0000	0.0000	-0.0000	-0.0002;
	261	260	0.0015943802	0.0055363635	2.299046e-06	0	0	0	0	0	1	-360	360	0.5731	2.9417	-0.5730	-2.9412;
	262	261	0.013512066	0.0358582645	1.850126e-05	0	0	0	0	0	1	-360	360	0.5747	2.9442	-0.5731	-2.9417;
	142	262	0.0079719008	0.027681818	1.149523e-05	0	0	0	0	0	1	-360	360	0.5755	2.9464	-0.5747	-2.9442;
	154	263	0.011160661	0.0387545455	1.609332e-05	0	0	0	0	0	1	-360	360	0.2060	0.8753	-0.2059	-0.8763;
	263	264	0.0015943802	0.0055363635	2.299046e-06	0	0	0	0	0	1	-360	360	0.2059	0.8763	-0.2059	-0.8764;
	264	265	0.0015943802	0.0055363635	2.299046e-06	0	0	0	0	0	1	-360	360	0.2059	0.8764	-0.2058	-0.8766;
	266	267	0.5806358	2.903179	0	0	0	0	0	0	1	-360	360	0.1014	0.4236	-0.1000	-0.4167;
	265	268	0.0077441322	0.026890909	1.116679e-05	0	0	0	0	0	1	-360	360	0.1030	0.4374	-0.1030	-0.4383;
	268	269	0.0077441322	0.026890909	1.116679e-05	0	0	0	0	0	1	-360	360	0.1030	0.4383	-0.1030	-0.4392;
	270	271	0.5806358	2.903179	0	0	0	0	0	0	1	-360	360	0.1014	0.4236	-0.1000	-0.4167;
	250	272	0.0059219835	0.0205636365	8.539313e-06	0	0	0	0	0	1	-360	360	0.5471	2.3081	-0.5467	-2.3076;
	273	274	0.5806358	2.903179	0	0	0	0	0	0	1	-360	360	0.1013	0.4231	-0.1000	-0.4167;
	102	279	-0	0.00041322315	0	0	0	0	0	0	1	-360	360	0.0334	0.1429	-0.0334	-0.1429;
	126	280	-0	0.00041322315	0	0	0	0	0	0	1	-360	360	0.0667	0.2879	-0.0667	-0.2879;
	156	281	-0	0.00041322315	0	0	0	0	0	0	1	-360	360	0.2370	1.0080	-0.2370	-1.0080;
	282	135	-0	0.00041322315	0	0	0	0	0	0	1	-360	360	0.0334	0.1427	-0.0334	-0.1427;
	20	122	0.06	9.7858161	0	0.5	0.65	0.65	1	30	1	-360	360	-0.0667	-0.2778	0.0667	0.2872;
	34	129	0.48	4.9769067	0	1	1.3	1.3	1	30	1	-360	360	-0.1359	-0.5682	0.1379	0.5898;
	14	119	0.61333333	6.5754439	0	0.75	0.975	0.975	1	30	1	-360	360	-0.1014	-0.4238	0.1029	0.4399;
	15	119	0.61333333	6.5754439	0	0.75	0.975	0.975	1	30	1	-360	360	-0.1014	-0.4238	0.1029	0.4399;
	36	130	0.61333333	6.5754439	0	0.75	0.975	0.975	1	30	1	-360	360	-0.1015	-0.4240	0.1030	0.4407;
	50	141	0.48	4.9769067	0	1	1.3	1.3	1	30	1	-360	360	-0.1358	-0.5678	0.1378	0.5889;
	49	140	0.48	4.9769067	0	1	1.3	1.3	1	30	1	-360	360	-0.1360	-0.5689	0.1382	0.5917;
	47	139	0.48	4.9769067	0	1	1.3	1.3	1	30	1	-360	360	-0.1360	-0.5689	0.1382	0.5917;
	88	167	0.48	4.9769067	0	1	1.3	1.3	1	30	1	-360	360	-0.1356	-0.5667	0.1376	0.5876;
	21	123	0.07	9.7857496	0	0.5	0.65	0.65	1	30	1	-360	360	-0.0667	-0.2778	0.0667	0.2872;
	8	117	0.48	4.9769067	0	1	1.3	1.3	1	30	1	-360	360	-0.1357	-0.5675	0.1377	0.5879;
	9	117	0.48	4.9769067	0	1	1.3	1.3	1	30	1	-360	360	-0.1357	-0.5675	0.1377	0.5879;
	43	136	0.07	9.7857496	0	0.5	0.65	0.65	1	30	1	-360	360	-0.0667	-0.2778	0.0667	0.2872;
	6	116	0.61333333	6.5754439	0	0.75	0.975	0.975	1	30	1	-360	360	-0.1013	-0.4231	0.1026	0.4376;
	5	116	0.61333333	6.5754439	0	0.75	0.975	0.975	1	30	1	-360	360	-0.1013	-0.4231	0.1026	0.4376;
	54	147	0.61333333	6.5754439	0	0.75	0.975	0.975	1	30	1	-360	360	-0.1013	-0.4233	0.1027	0.4382;
	25	125	0.61333333	6.5754439	0	0.75	0.975	0.975	1	30	1	-360	360	-0.1013	-0.4233	0.1027	0.4382;
	23	124	0.61333333	6.5754439	0	0.75	0.975	0.975	1	30	1	-360	360	-0.1013	-0.4233	0.1027	0.4382;
	2	115	0.61333333	6.4951057	0	0.75	0.65	0.65	1	30	1	-360	360	-0.0667	-0.2778	0.0672	0.2840;
	45	138	0.07	9.7857496	0	0.5	0.65	0.65	1	30	1	-360	360	-0.0667	-0.2778	0.0667	0.2871;
	65	155	0.07	9.7857496	0	0.5	0.65	0.65	1	30	1	-360	360	-0.0667	-0.2778	0.0667	0.2872;
	27	249	0.61333333	6.5754439	0	0.75	0.975	0.975	1	30	1	-360	360	-0.1013	-0.4232	0.1027	0.4379;
	40	132	0.61333333	6.5754439	0	0.75	0.975	0.975	1	30	1	-360	360	-0.1013	-0.4230	0.1026	0.4374;
	38	131	0.61333333	6.5754439	0	0.75	0.975	0.975	1	30	1	-360	360	-0.1013	-0.4230	0.1026	0.4374;
	42	135	0.12	15.923548	0	0.25	0.325	0.325	1	30	1	-360	360	-0.0333	-0.1389	0.0334	0.1429;
	28	280	0.07	9.7857496	0	0.5	0.65	0.65	1	30	1	-360	360	-0.0667	-0.2778	0.0667	0.2879;
	44	137	0.12	15.923548	0	0.25	0.325	0.325	1	30	1	-360	360	-0.0333	-0.1389	0.0334	0.1429;
	61	151	0.61333333	6.5754439	0	0.75	0.975	0.975	1	30	1	-360	360	-0.1014	-0.4235	0.1028	0.4391;
	59	150	0.07	9.7857496	0	0.5	0.65	0.65	1	30	1	-360	360	-0.0673	-0.2808	0.0673	0.2910;
	11	118	0.61333333	6.5754439	0	0.75	0.975	0.975	1	30	1	-360	360	-0.1014	-0.4235	0.1028	0.4390;
	17	120	0.48	4.9769067	0	1	1.3	1.3	1	30	1	-360	360	-0.1358	-0.5677	0.1378	0.5886;
	64	155	0.07	9.7857496	0	0.5	0.65	0.65	1	30	1	-360	360	-0.0667	-0.2778	0.0667	0.2872;
	19	121	0.48	4.9769067	0	1	1.3	1.3	1	30	1	-360	360	-0.1358	-0.5677	0.1378	0.5886;
	41	133	0.07	9.7857496	0	0.5	0.65	0.65	1	30	1	-360	360	-0.0667	-0.2778	0.0667	0.2868;
	55	148	0.48	4.9769067	0	1	1.3	1.3	1	30	1	-360	360	-0.1473	-0.6256	0.1497	0.6496;
	63	153	0.61333333	10.774544	0	0.75	1.3	1.3	1	30	1	-360	360	-0.1518	-0.6476	0.1556	0.7160;
	67	156	0.61333333	6.5754439	0	0.75	0.975	0.975	1	30	1	-360	360	-0.1014	-0.4236	0.1028	0.4392;
	69	157	0.48	4.9769067	0	1	1.3	1.3	1	30	1	-360	360	-0.1358	-0.5678	0.1378	0.5887;
	71	158	0.61333333	6.3303438	0	0.75	0.975	0.975	1	30	1	-360	360	-0.1001	-0.4173	0.1015	0.4317;
	72	159	0.61333333	6.3303438	0	0.75	0.975	0.975	1	30	1	-360	360	-0.1001	-0.4173	0.1015	0.4317;
	30	127	0.61333333	6.5754439	0	0.75	0.975	0.975	1	30	1	-360	360	-0.1013	-0.4231	0.1027	0.4377;
	74	160	0.48	4.9769067	0	1	0.975	0.975	1	30	1	-360	360	-0.1335	-0.4173	0.1345	0.4280;
	80	163	0.48	4.9769067	0	1	1.3	1.3	1	30	1	-360	360	-0.1336	-0.5567	0.1357	0.5783;
	1	115	0.61333333	6.4951057	0	0.75	0.65	0.65	1	30	1	-360	360	-0.0667	-0.2778	0.0672	0.2840;
	76	161	0.48	4.9769067	0	1	1.3	1.3	1	30	1	-360	360	-0.1013	-0.4233	0.1024	0.4347;
	78	162	0.48	4.9769067	0	1	1.3	1.3	1	30	1	-360	360	-0.1333	-0.5556	0.1353	0.5756;
	82	164	0.07	9.6997474	0	0.5	0.52	0.52	1	30	1	-360	360	-0.0667	-0.2224	0.0668	0.2291;
	86	166	0.48	4.9769067	0	1	1.3	1.3	1	30	1	-360	360	-0.1358	-0.5678	0.1378	0.5887;
	84	165	0.48	4.9769067	0	1	1.3	1.3	1	30	1	-360	360	-0.1358	-0.5678	0.1378	0.5887;
	90	168	0.61333333	6.3303438	0	0.75	0.975	0.975	1	30	1	-360	360	-0.1013	-0.4230	0.1027	0.4382;
	92	169	0.48	4.9769067	0	1	1.3	1.3	1	30	1	-360	360	-0.1357	-0.5676	0.1379	0.5901;
	52	146	0.61333333	6.5754439	0	0.75	0.975	0.975	1	30	1	-360	360	-0.1013	-0.4231	0.1027	0.4377;
	57	149	0.07	9.7857496	0	0.5	0.65	0.65	1	30	1	-360	360	-0.0667	-0.2778	0.0667	0.2869;
	56	149	0.07	9.7857496	0	0.5	0.65	0.65	1	30	1	-360	360	-0.0667	-0.2778	0.0667	0.2869;
	32	128	0.48	4.9769067	0	1	1.3	1.3	1	30	1	-360	360	-0.1359	-0.5682	0.1379	0.5898;
	235	234	0.48	4.9769067	0	1	0.65	0.65	1	30	1	-360	360	-0.0667	-0.2778	0.0671	0.2824;
	237	236	0.48	4.9769067	0	1	0.65	0.65	1	30	1	-360	360	-0.0667	-0.2778	0.0671	0.2824;
	239	238	0.61333333	6.4951057	0	0.75	0.65	0.65	1	30	1	-360	360	-0.0667	-0.2778	0.0672	0.2839;
	241	240	0.61333333	6.4951057	0	0.75	0.65	0.65	1	30	1	-360	360	-0.0667	-0.2778	0.0672	0.2839;
	243	242	0.48	4.9769067	0	1	0.65	0.65	1	30	1	-360	360	-0.0667	-0.2778	0.0671	0.2825;
	247	244	0.48	4.9769067	0	1	0.65	0.65	1	30	1	-360	360	-0.0667	-0.2778	0.0671	0.2826;
	248	245	0.48	4.9769067	0	1	0.65	0.65	1	30	1	-360	360	-0.0667	-0.2778	0.0671	0.2826;
	259	260	0.4	4.9839743	0	1.5	0.975	0.975	1	30	1	-360	360	-0.1860	-0.9183	0.1910	0.9805;
	266	265	0.61333333	6.5754439	0	0.75	0.975	0.975	1	30	1	-360	360	-0.1014	-0.4236	0.1028	0.4392;
	270	269	0.66666667	6.5702508	0	0.75	0.975	0.975	1	30	1	-360	360	-0.1014	-0.4236	0.1030	0.4392;
	273	272	0.48	4.9769067	0	1	0.975	0.975	1	30	1	-360	360	-0.1013	-0.4231	0.1023	0.4341;
	275	161	0.48	4.9769067	0	1	1.3	1.3	1	30	1	-360	360	-0.1000	-0.4167	0.1011	0.4277;
	276	260	0.4	4.9839743	0	1.5	0.975	0.975	1	30	1	-360	360	-0.1860	-0.9183	0.1910	0.9805;
	277	260	0.4	4.9839743	0	1.5	0.975	0.975	1	30	1	-360	360	-0.1860	-0.9183	0.1910	0.9805;
];

%%-----  OPF Data  -----%%
%% generator cost data
%	1	startup	shutdown	n	x1	y1	...	xn	yn
%	2	startup	shutdown	n	c(n-1)	...	c0
mpc.gencost = [
	2	0	0	3	0	1	0;
];

%% bus names
mpc.bus_name = {
	'1008B1T1';
	'1008B1T2';
	'1225E1';
	'1225E2';
	'1225T1';
	'1225T2';
	'1240E1';
	'1240T1';
	'1240T2';
	'1241E1';
	'1241T1';
	'1348E1';
	'1348E2';
	'1348T1';
	'1348T2';
	'1744B1E1';
	'1744B1T1';
	'1744B2E2';
	'1744B2T2';
	'1853B1T1';
	'1853B2T2';
	'1952B1E1';
	'1952B1T1';
	'1952B2E2';
	'1952B2T2';
	'2002E1';
	'2002T1';
	'2497T1';
	'2972E1';
	'2972T1';
	'3294B1E1';
	'3294B1T1';
	'3294B2E2';
	'3294B2T2';
	'3401E1';
	'3401T1';
	'3411B1E1';
	'3411B1T1';
	'3411B2E2';
	'3411B2T2';
	'3488T1';
	'4115T1';
	'4685T1';
	'4737T1';
	'4871T1';
	'5151B1E1';
	'5151B1T1';
	'5151B2E2';
	'5151B2T2';
	'5151B3T3';
	'5842E1';
	'5842T1';
	'6163E1';
	'6163T1';
	'6809T1';
	'739T1';
	'739T2';
	'755B1E1';
	'755B1T1';
	'755B2E2';
	'755B2T2';
	'7584E1';
	'7584T1';
	'776T1';
	'776T2';
	'8007E1';
	'8007T1';
	'8500E1';
	'8500T1';
	'8609E1';
	'8773B1T1';
	'8773B2T2';
	'8845B1E1';
	'8845T1';
	'8972B1E1';
	'8972B1T1';
	'8972B2E2';
	'8972B2T2';
	'9003E1';
	'9003T1';
	'9142E1';
	'9142T1';
	'9266B1E1';
	'9266B1T1';
	'9266B2E2';
	'9266B2T2';
	'9266B3E3';
	'9266B3T3';
	'9469E1';
	'9469T1';
	'9525E1';
	'9525T1';
	'A4333';
	'A4378';
	'ANU1';
	'ANU2';
	'ANU3';
	'ANU4';
	'CV_AG_F';
	'L5321';
	'L6976';
	'L7451';
	'L7452';
	'L8653';
	'OASW1254B2';
	'N555';
	'OBSW1254B2';
	'OCSW1254B2';
	'OS1008B1';
	'OS1241';
	'OS3294B2';
	'OS5151B6';
	'OSW2962';
	'PLASMA';
	'S1008B1';
	'S1225';
	'S1240';
	'S1241';
	'S1348';
	'S1744B1';
	'S1744B2';
	'S1853B1';
	'S1853B2';
	'S1952B1';
	'S1952B2';
	'S2497';
	'S2972';
	'S3294B1';
	'S3294B2';
	'S3401';
	'S3411B1';
	'S3411B2';
	'S3488';
	'S3492';
	'S4115';
	'S4685';
	'S4737';
	'S4871';
	'S5151B1';
	'S5151B2';
	'S5151B3';
	'S5151B4';
	'S5151B5';
	'S5151B6';
	'S5151B7';
	'S5842';
	'S6163';
	'S6809';
	'S739';
	'S755B1';
	'S755B2';
	'S755B3';
	'S7584';
	'S7673';
	'S776';
	'S8007';
	'S8500';
	'S8773B1';
	'S8773B2';
	'S8845';
	'S8972B1';
	'S8972B2';
	'S9003';
	'S9142';
	'S9266B1';
	'S9266B2';
	'S9266B3';
	'S9469';
	'S9525';
	'SW1254B1';
	'SW1254B2';
	'Z1_1008';
	'Z1_1225';
	'Z1_1240';
	'Z1_1241';
	'Z1_1254';
	'Z1_1254B2';
	'Z1_1348';
	'Z1_1744';
	'Z1_1853';
	'Z1_1952';
	'Z1_2972';
	'Z1_3401';
	'Z1_3492';
	'Z1_4115';
	'Z1_4685';
	'Z1_5151';
	'Z1_5151B6';
	'Z1_739';
	'Z1_755B2';
	'Z1_755B3';
	'Z1_7584';
	'Z1_776';
	'Z1_8007';
	'Z1_8500';
	'Z1_8773';
	'Z1_8845';
	'Z1_9142';
	'Z1_9266';
	'Z1_9469';
	'Z1_ANU1';
	'Z1_ANU2';
	'Z1_ANU3';
	'Z1_ANU4';
	'Z2_2972';
	'Z2_3401';
	'Z2_3492';
	'Z2_5151B6';
	'Z2_739';
	'Z2_755B2';
	'Z2_755B3';
	'Z2_7584';
	'Z2_776';
	'Z2_8773';
	'Z2_ANU1';
	'Z2_ANU2';
	'Z3_1254B1';
	'Z3_1952';
	'Z3_7584';
	'Z3_8773';
	'Z3_ANU1';
	'Z3_ANU2';
	'Z4_1254B1';
	'Z4_ANU1';
	'Z4_ANU2';
	'Z5_ANU1';
	'Z5_ANU2';
	'N255';
	'N256';
	'N258';
	'N275';
	'N277';
	'S9746';
	'S9746';
	'S9747';
	'S9747';
	'S9634';
	'S9634';
	'S9635';
	'S9635';
	'S9655A';
	'S9655A';
	'S9655B';
	'S9655C';
	'N301';
	'S9655B';
	'S9655C';
	'S2002';
	'N309';
	'N310';
	'N311';
	'N312';
	'N313';
	'N317';
	'N318';
	'N320';
	'N326';
	'S9770T2';
	'S9770';
	'N339';
	'N340';
	'N342';
	'S8782';
	'S9260';
	'S9260';
	'N352';
	'N354';
	'S7673';
	'S7673';
	'N359';
	'S9427';
	'S9427';
	'N365';
	'S8972T3';
	'S9770T3';
	'S9770T1';
	'N378';
	'N382';
	'N385';
	'N386';
	'653-*CV_AG_F';
	'654-*OS1008B1';
	'655-*OS3294B2';
	'657-*S1241';
	'658-*S5151B2';
};
